/*--------------------------------*- C++ -*----------------------------------*\
| =========                 |                                                 |
| \\      /  F ield         | OpenFOAM: The Open Source CFD Toolbox           |
|  \\    /   O peration     | Version:  v2412                                 |
|   \\  /    A nd           | Website:  www.openfoam.com                      |
|    \\/     M anipulation  |                                                 |
\*---------------------------------------------------------------------------*/

FoamFile
{
    version         2.0;
    format          ascii;

    root            "";
    case            "";
    instance        "";
    local           "";

    class           dictionary;
    object          controlDict;
}

// * * * * * * * * * * * * * * * * * * * * * * * * * * * * * * * * * * * * * //

application HRMFoam;

startFrom       latestTime;

startTime       0.0;

stopAt          endTime;

endTime         1.0E0;

deltaT          1e-07;

maxDeltaT	5e-07;

writeControl    adjustableRunTime;

writeInterval    1E-3;

//writeControl    timeStep;

//writeInterval   5;

purgeWrite      0;

writeFormat     ascii;

writePrecision  7;

writeCompression on;

timeFormat      general;

adjustTimeStep  yes;

maxCo           0.9;

timePrecision   6;

runTimeModifiable yes;

/*  if we need to do writing of a field that is not normally output
functions
{
    testing
    {
        type writeRegisteredObject;
        functionObjectLibs ( "libIOFunctionObjects.so" );
        objectNames ("bananas");
        outputControl     outputTime;
    }
}
*/
// ************************************************************************* //
