/*--------------------------------*- C++ -*----------------------------------*\
| =========                 |                                                 |
| \\      /  F ield         | OpenFOAM Extend Project: Open source CFD        |
|  \\    /   O peration     | Version:  1.6-ext                               |
|   \\  /    A nd           | Web:      www.extend-project.de                 |
|    \\/     M anipulation  |                                                 |
\*---------------------------------------------------------------------------*/
FoamFile
{
    version     2.0;
    format      ascii;
    class       volScalarField;
    location    "0";
    object      y;
}
// * * * * * * * * * * * * * * * * * * * * * * * * * * * * * * * * * * * * * //

dimensions      [0 0 0 0 0 0 0];

internalField   uniform 0.0;

boundaryField
{
    outlet
    {
        type            thermX; // inletOutlet;
        inletValue      uniform 0;
        value           uniform 0;
    }
    inlet
    {
        type            fixedValue;
        value           uniform 0;
    }
    centerline
    {
        type            empty;
    }
    wall
    {
        type            zeroGradient;
    }
    frontAndBackPlanes
    {
        type            empty;
    }
    frontAndBackPlanes_pos
    {
        type            wedge;
    }
    frontAndBackPlanes_neg
    {
        type            wedge;
    }
}


// ************************************************************************* //
