/*--------------------------------*- C++ -*----------------------------------*\
| =========                 |                                                 |
| \\      /  F ield         | OpenFOAM: The Open Source CFD Toolbox           |
|  \\    /   O peration     | Version:  v2412                                 |
|   \\  /    A nd           | Website:  www.openfoam.com                      |
|    \\/     M anipulation  |                                                 |
\*---------------------------------------------------------------------------*/
FoamFile
{
    version     2.0;
    format      ascii;
    class       volScalarField;
    object      p;
}
// * * * * * * * * * * * * * * * * * * * * * * * * * * * * * * * * * * * * * //

dimensions      [1 -1 -2 0 0 0 0];

internalField   uniform 1.0e6;

boundaryField
{
   wall
    {
        type            zeroGradient;
    }

    outlet            
    {
	type            timeVaryingTransonicTotalPressure;
	phi             phiv;
	p0              1.0e6;
        value           uniform 1.0E6;
	file            "outP.dat";
    }

    frontAndBackPlanes           
    {
        type            empty;
    }

    inlet
    {
        type            fixedValue;
        value           uniform 1.0E6;

    }
    
    frontAndBackPlanes_pos           
    {
        type            wedge;
    }
    
    frontAndBackPlanes_neg           
    {
        type            wedge;
    }
    
    axis            
    {
      type empty;
    }


 
}

// ************************************************************************* //
