/*--------------------------------*- C++ -*----------------------------------*\
| =========                 |                                                 |
| \\      /  F ield         | OpenFOAM: The Open Source CFD Toolbox           |
|  \\    /   O peration     | Version:  v2412                                 |
|   \\  /    A nd           | Website:  www.openfoam.com                      |
|    \\/     M anipulation  |                                                 |
\*---------------------------------------------------------------------------*/

FoamFile
{
    version         2.0;
    format          ascii;

    root	    ".";
    case 	    "test";
    instance        "system";
    local           "";

    class           dictionary;
    object          radialBCDict;
}


// Use the same parameters as from the command line
// makeAxialOldMode 1;

// used in old and in new mode
makeAxialAxisPatch axis;
makeAxialWedgePatch frontAndBackPlanes;

// used only in old mode
makeAxialOffset 0.05;

// used only in new mode
rotationVector (1 0 0);
originVector (0 0 0);

wedgeAngle 5;

// revolve option
// 0 = old and default mode, points are projected on wedges
// 1 = points are revolved
revolve 0;

// ************************************************************************* //
