/*--------------------------------*- C++ -*----------------------------------*\
| =========                 |                                                 |
| \\      /  F ield         | OpenFOAM: The Open Source CFD Toolbox           |
|  \\    /   O peration     | Version:  1.6-ext                               |
|   \\  /    A nd           | Web:      www.OpenFOAM.org                      |
|    \\/     M anipulation  |                                                 |
\*---------------------------------------------------------------------------*/
FoamFile
{
    version     1.6;
    format      ascii;
    class       dictionary;
    object      snappyHexMeshDict;
}

castellatedMesh true;
snap            true;
addLayers       true;


geometry
{
    inlet.stl
    {
        type triSurfaceMesh;
        name inlet;
    }

    outlet.stl
    {
        type triSurfaceMesh;
        name outlet;
    }

    walls.stl
    {
        type triSurfaceMesh;
        name walls;
    }

    // Refinement Zones (custom)
    refineThroat 
    {
        type searchableCylinder;
        point1 (-100 4.5 4.5);
        point2 (100 4.5 4.5);
        radius 9;
    }
};


castellatedMeshControls
{
    maxLocalCells   100000000;
    maxGlobalCells  100000000;
    minRefinementCells 10;
    maxLoadUnbalance 0.10;
    nCellsBetweenLevels 5;
    features
    (
	{
		file "walls.eMesh";
		level 0;
	}

        /*{
                file "inlet.eMesh";
                level 0;
        }*/

        /*{
                file "outlet.eMesh";
                level 0;
        }*/

    );
    refinementSurfaces
    {
	inlet
        {
            level (0 0);
        }

	outlet
        {
            level (0 0);
        }

        walls
        {
            level (0 1);
            gapLevelIncrement 2;
	}
    }
    resolveFeatureAngle 30;

    refinementRegions
    {
	refineThroat
        {
	    mode inside;
	    levels ((1 2));
        }
    }

    // Inside the STL volume 
    locationInMesh (44 4.5 4.5);

    allowFreeStandingZoneFaces true;
}

snapControls
{
    nSmoothPatch 3;
    tolerance 4.0;
    nSolveIter 30;
    nRelaxIter 5;
    nFeatureSnapIter 10;
}

addLayersControls
{
    relativeSizes true;
    
    layers
    {
	
        "walls"
        {
            nSurfaceLayers 5;
        }
     
        /*"inlet"
        {
            nSurfaceLayers 5;
        }*/

        /*"outlet"
        {
            nSurfaceLayers 5;
        }*/
	
    }

    expansionRatio 1.2;
    finalLayerThickness 0.5;
    minThickness 0.1;
    nGrow 0;
    featureAngle 60;
    nRelaxIter 8;
    nSmoothSurfaceNormals 3;
    nSmoothNormals 10;
    nSmoothThickness 10;
    maxFaceThicknessRatio 0.5;
    maxThicknessToMedialRatio 0.3;
    minMedianAxisAngle 130;
    nBufferCellsNoExtrude 0;
    nLayerIter 30;
    minMedialAxisAngle 130;
}

meshQualityControls
{
    maxNonOrtho 65; //80;
    maxBoundarySkewness 20;
    maxInternalSkewness 4; //5;
    maxConcave 80;
    minVol 1e-13;
    minTetQuality 1e-30;
    minArea -1;
    minTwist 0.02;
    minDeterminant 0.001;
    minFaceWeight 0.02;
    minVolRatio 0.01;
    minTriangleTwist -1;
    nSmoothScale 4;
    errorReduction 0.75;
}


// 0 : only write final meshes
// 1 : write intermediate meshes
// 2 : write volScalarField with cellLevel for postprocessing
// 4 : write current intersections as .obj files
debug 0;

mergeTolerance 1e-6;
