/*--------------------------------*- C++ -*----------------------------------*\
| =========                 |                                                 |
| \\      /  F ield         | OpenFOAM: The Open Source CFD Toolbox           |
|  \\    /   O peration     | Version:  v2412                                 |
|   \\  /    A nd           | Website:  www.openfoam.com                      |
|    \\/     M anipulation  |                                                 |
\*---------------------------------------------------------------------------*/
FoamFile
{
    version     2.0;
    format      ascii;
    class       dictionary;
    object      sigmayConstants;
}
// * * * * * * * * * * * * * * * * * * * * * * * * * * * * * * * * * * * * * //

solveSigma           yes;

Sc                   Sc [0 0 0 0 0 0 0] 0.9;

surfaceTension       surfaceTension [1 0 -2 0 0 0 0] 15E-3;  //R134a liq value approx

dnsAlpha             dnsAlpha [0 0 0 0 0 0 0] 2.4;

nozDia               nozDia [0 1 0 0 0 0 0] 3E-4; // From the grid.

C1                   C1 [0 0 0 0 0 0 0] 1.0;

C2                   C2 [0 0 0 0 0 0 0] 1.0;

// ************************************************************************* //
